336

C       0.000000000000000      0.000000000000000      0.000000000000000
C       0.000000000000000      1.420281662206479      0.000000000000000
C       0.000000000000001      1.420281662206480      3.350000000000000
C       1.230000000000000      0.710140831103240      3.350000000000000
C       2.460000000000000      0.000000000000000      0.000000000000000
C       2.460000000000000      1.420281662206479      0.000000000000000
C       2.460000000000000      1.420281662206480      3.350000000000000
C       3.690000000000000      0.710140831103240      3.350000000000000
C       4.920000000000000      0.000000000000000      0.000000000000000
C       4.920000000000000      1.420281662206479      0.000000000000000
C       4.920000000000001      1.420281662206480      3.350000000000000
C       6.150000000000000      0.710140831103240      3.350000000000000
C       7.380000000000000      0.000000000000000      0.000000000000000
C       7.380000000000000      1.420281662206479      0.000000000000000
C       7.380000000000001      1.420281662206480      3.350000000000000
C       8.609999999999999      0.710140831103240      3.350000000000000
C       9.840000000000000      0.000000000000000      0.000000000000000
C       9.840000000000000      1.420281662206479      0.000000000000000
C       9.840000000000000      1.420281662206480      3.350000000000000
C      11.070000000000000      0.710140831103240      3.350000000000000
C      12.300000000000001      0.000000000000000      0.000000000000000
C      12.300000000000001      1.420281662206479      0.000000000000000
C      12.300000000000001      1.420281662206480      3.350000000000000
C      13.530000000000001      0.710140831103240      3.350000000000000
C      -1.230000000000000      2.130422493309719      0.000000000000000
C      -1.229999999999999      3.550704155516199      0.000000000000000
C      -1.229999999999999      3.550704155516199      3.350000000000000
C       0.000000000000001      2.840563324412959      3.350000000000000
C       1.230000000000000      2.130422493309719      0.000000000000000
C       1.230000000000001      3.550704155516199      0.000000000000000
C       1.230000000000001      3.550704155516199      3.350000000000000
C       2.460000000000001      2.840563324412959      3.350000000000000
C       3.690000000000000      2.130422493309719      0.000000000000000
C       3.690000000000000      3.550704155516199      0.000000000000000
C       3.690000000000001      3.550704155516199      3.350000000000000
C       4.920000000000001      2.840563324412959      3.350000000000000
C       6.150000000000000      2.130422493309719      0.000000000000000
C       6.150000000000000      3.550704155516199      0.000000000000000
C       6.150000000000001      3.550704155516199      3.350000000000000
C       7.380000000000000      2.840563324412959      3.350000000000000
C       8.609999999999999      2.130422493309719      0.000000000000000
C       8.609999999999999      3.550704155516199      0.000000000000000
C       8.609999999999999      3.550704155516199      3.350000000000000
C       9.840000000000000      2.840563324412959      3.350000000000000
C      11.070000000000000      2.130422493309719      0.000000000000000
C      11.070000000000000      3.550704155516199      0.000000000000000
C      11.070000000000000      3.550704155516199      3.350000000000000
C      12.300000000000001      2.840563324412959      3.350000000000000
C      -2.459999999999999      4.260844986619438      0.000000000000000
C      -2.459999999999999      5.681126648825917      0.000000000000000
C      -2.459999999999999      5.681126648825918      3.350000000000000
C      -1.229999999999999      4.970985817722678      3.350000000000000
C       0.000000000000001      4.260844986619438      0.000000000000000
C       0.000000000000001      5.681126648825917      0.000000000000000
C       0.000000000000001      5.681126648825918      3.350000000000000
C       1.230000000000001      4.970985817722678      3.350000000000000
C       2.460000000000001      4.260844986619438      0.000000000000000
C       2.460000000000001      5.681126648825917      0.000000000000000
C       2.460000000000002      5.681126648825918      3.350000000000000
C       3.690000000000001      4.970985817722678      3.350000000000000
C       4.920000000000001      4.260844986619438      0.000000000000000
C       4.920000000000001      5.681126648825917      0.000000000000000
C       4.920000000000002      5.681126648825918      3.350000000000000
C       6.150000000000000      4.970985817722678      3.350000000000000
C       7.380000000000001      4.260844986619438      0.000000000000000
C       7.380000000000001      5.681126648825917      0.000000000000000
C       7.380000000000001      5.681126648825918      3.350000000000000
C       8.610000000000001      4.970985817722678      3.350000000000000
C       9.840000000000002      4.260844986619438      0.000000000000000
C       9.840000000000002      5.681126648825917      0.000000000000000
C       9.840000000000002      5.681126648825918      3.350000000000000
C      11.070000000000002      4.970985817722678      3.350000000000000
C      -3.689999999999999      6.391267479929157      0.000000000000000
C      -3.689999999999998      7.811549142135636      0.000000000000000
C      -3.689999999999998      7.811549142135637      3.350000000000000
C      -2.459999999999998      7.101408311032397      3.350000000000000
C      -1.229999999999999      6.391267479929157      0.000000000000000
C      -1.229999999999998      7.811549142135636      0.000000000000000
C      -1.229999999999998      7.811549142135637      3.350000000000000
C       0.000000000000002      7.101408311032397      3.350000000000000
C       1.230000000000001      6.391267479929157      0.000000000000000
C       1.230000000000001      7.811549142135636      0.000000000000000
C       1.230000000000002      7.811549142135637      3.350000000000000
C       2.460000000000002      7.101408311032397      3.350000000000000
C       3.690000000000001      6.391267479929157      0.000000000000000
C       3.690000000000001      7.811549142135636      0.000000000000000
C       3.690000000000002      7.811549142135637      3.350000000000000
C       4.920000000000001      7.101408311032397      3.350000000000000
C       6.150000000000001      6.391267479929157      0.000000000000000
C       6.150000000000001      7.811549142135636      0.000000000000000
C       6.150000000000001      7.811549142135637      3.350000000000000
C       7.380000000000002      7.101408311032397      3.350000000000000
C       8.610000000000003      6.391267479929157      0.000000000000000
C       8.610000000000003      7.811549142135636      0.000000000000000
C       8.610000000000003      7.811549142135637      3.350000000000000
C       9.840000000000003      7.101408311032397      3.350000000000000
C      -4.919999999999998      8.521689973238876      0.000000000000000
C      -4.919999999999998      9.941971635445356      0.000000000000000
C      -4.919999999999997      9.941971635445356      3.350000000000000
C      -3.689999999999998      9.231830804342117      3.350000000000000
C      -2.459999999999998      8.521689973238876      0.000000000000000
C      -2.459999999999998      9.941971635445356      0.000000000000000
C      -2.459999999999998      9.941971635445356      3.350000000000000
C      -1.229999999999998      9.231830804342117      3.350000000000000
C       0.000000000000002      8.521689973238876      0.000000000000000
C       0.000000000000002      9.941971635445356      0.000000000000000
C       0.000000000000003      9.941971635445356      3.350000000000000
C       1.230000000000002      9.231830804342117      3.350000000000000
C       2.460000000000002      8.521689973238876      0.000000000000000
C       2.460000000000002      9.941971635445356      0.000000000000000
C       2.460000000000003      9.941971635445356      3.350000000000000
C       3.690000000000001      9.231830804342117      3.350000000000000
C       4.920000000000002      8.521689973238876      0.000000000000000
C       4.920000000000002      9.941971635445356      0.000000000000000
C       4.920000000000002      9.941971635445356      3.350000000000000
C       6.150000000000002      9.231830804342117      3.350000000000000
C       7.380000000000003      8.521689973238876      0.000000000000000
C       7.380000000000003      9.941971635445356      0.000000000000000
C       7.380000000000003      9.941971635445356      3.350000000000000
C       8.610000000000003      9.231830804342117      3.350000000000000
C      -6.149999999999998     10.652112466548596      0.000000000000000
C      -6.149999999999998     12.072394128755075      0.000000000000000
C      -6.149999999999997     12.072394128755075      3.350000000000000
C      -4.919999999999997     11.362253297651836      3.350000000000000
C      -3.689999999999998     10.652112466548596      0.000000000000000
C      -3.689999999999997     12.072394128755075      0.000000000000000
C      -3.689999999999997     12.072394128755075      3.350000000000000
C      -2.459999999999997     11.362253297651836      3.350000000000000
C      -1.229999999999998     10.652112466548596      0.000000000000000
C      -1.229999999999998     12.072394128755075      0.000000000000000
C      -1.229999999999997     12.072394128755075      3.350000000000000
C       0.000000000000003     11.362253297651836      3.350000000000000
C       1.230000000000002     10.652112466548596      0.000000000000000
C       1.230000000000002     12.072394128755075      0.000000000000000
C       1.230000000000003     12.072394128755075      3.350000000000000
C       2.460000000000002     11.362253297651836      3.350000000000000
C       3.690000000000002     10.652112466548596      0.000000000000000
C       3.690000000000002     12.072394128755075      0.000000000000000
C       3.690000000000002     12.072394128755075      3.350000000000000
C       4.920000000000003     11.362253297651836      3.350000000000000
C       6.150000000000003     10.652112466548596      0.000000000000000
C       6.150000000000003     12.072394128755075      0.000000000000000
C       6.150000000000003     12.072394128755075      3.350000000000000
C       7.380000000000003     11.362253297651836      3.350000000000000
C      -7.379999999999997     12.782534959858314      0.000000000000000
C      -7.379999999999997     14.202816622064793      0.000000000000000
C      -7.379999999999996     14.202816622064793      3.350000000000000
C      -6.149999999999997     13.492675790961554      3.350000000000000
C      -4.919999999999997     12.782534959858314      0.000000000000000
C      -4.919999999999996     14.202816622064793      0.000000000000000
C      -4.919999999999996     14.202816622064793      3.350000000000000
C      -3.689999999999997     13.492675790961554      3.350000000000000
C      -2.459999999999997     12.782534959858314      0.000000000000000
C      -2.459999999999997     14.202816622064793      0.000000000000000
C      -2.459999999999996     14.202816622064793      3.350000000000000
C      -1.229999999999997     13.492675790961554      3.350000000000000
C       0.000000000000003     12.782534959858314      0.000000000000000
C       0.000000000000003     14.202816622064793      0.000000000000000
C       0.000000000000004     14.202816622064793      3.350000000000000
C       1.230000000000002     13.492675790961554      3.350000000000000
C       2.460000000000003     12.782534959858314      0.000000000000000
C       2.460000000000003     14.202816622064793      0.000000000000000
C       2.460000000000003     14.202816622064793      3.350000000000000
C       3.690000000000003     13.492675790961554      3.350000000000000
C       4.920000000000003     12.782534959858314      0.000000000000000
C       4.920000000000003     14.202816622064793      0.000000000000000
C       4.920000000000003     14.202816622064793      3.350000000000000
C       6.150000000000004     13.492675790961554      3.350000000000000
C       0.000000000000000      0.000000000000001      6.700000000000000
C       0.000000000000001      1.420281662206480      6.700000000000000
C       0.000000000000001      1.420281662206480     10.050000000000001
C       1.230000000000001      0.710140831103241     10.050000000000001
C       2.460000000000000      0.000000000000001      6.700000000000000
C       2.460000000000001      1.420281662206480      6.700000000000000
C       2.460000000000001      1.420281662206480     10.050000000000001
C       3.690000000000001      0.710140831103241     10.050000000000001
C       4.920000000000000      0.000000000000001      6.700000000000000
C       4.920000000000000      1.420281662206480      6.700000000000000
C       4.920000000000001      1.420281662206480     10.050000000000001
C       6.150000000000000      0.710140831103241     10.050000000000001
C       7.380000000000000      0.000000000000001      6.700000000000000
C       7.380000000000000      1.420281662206480      6.700000000000000
C       7.380000000000001      1.420281662206480     10.050000000000001
C       8.609999999999999      0.710140831103241     10.050000000000001
C       9.840000000000000      0.000000000000001      6.700000000000000
C       9.840000000000000      1.420281662206480      6.700000000000000
C       9.840000000000000      1.420281662206480     10.050000000000001
C      11.070000000000000      0.710140831103241     10.050000000000001
C      12.300000000000001      0.000000000000001      6.700000000000000
C      12.300000000000001      1.420281662206480      6.700000000000000
C      12.300000000000001      1.420281662206480     10.050000000000001
C      13.530000000000001      0.710140831103241     10.050000000000001
C      -1.229999999999999      2.130422493309720      6.700000000000000
C      -1.229999999999999      3.550704155516200      6.700000000000000
C      -1.229999999999999      3.550704155516200     10.050000000000001
C       0.000000000000001      2.840563324412960     10.050000000000001
C       1.230000000000001      2.130422493309720      6.700000000000000
C       1.230000000000001      3.550704155516200      6.700000000000000
C       1.230000000000001      3.550704155516200     10.050000000000001
C       2.460000000000001      2.840563324412960     10.050000000000001
C       3.690000000000001      2.130422493309720      6.700000000000000
C       3.690000000000001      3.550704155516200      6.700000000000000
C       3.690000000000002      3.550704155516200     10.050000000000001
C       4.920000000000001      2.840563324412960     10.050000000000001
C       6.150000000000000      2.130422493309720      6.700000000000000
C       6.150000000000000      3.550704155516200      6.700000000000000
C       6.150000000000001      3.550704155516200     10.050000000000001
C       7.380000000000000      2.840563324412960     10.050000000000001
C       8.609999999999999      2.130422493309720      6.700000000000000
C       8.609999999999999      3.550704155516200      6.700000000000000
C       8.609999999999999      3.550704155516200     10.050000000000001
C       9.840000000000000      2.840563324412960     10.050000000000001
C      11.070000000000000      2.130422493309720      6.700000000000000
C      11.070000000000000      3.550704155516200      6.700000000000000
C      11.070000000000000      3.550704155516200     10.050000000000001
C      12.300000000000001      2.840563324412960     10.050000000000001
C      -2.459999999999999      4.260844986619439      6.700000000000000
C      -2.459999999999998      5.681126648825918      6.700000000000000
C      -2.459999999999998      5.681126648825919     10.050000000000001
C      -1.229999999999998      4.970985817722679     10.050000000000001
C       0.000000000000001      4.260844986619439      6.700000000000000
C       0.000000000000002      5.681126648825918      6.700000000000000
C       0.000000000000002      5.681126648825919     10.050000000000001
C       1.230000000000002      4.970985817722679     10.050000000000001
C       2.460000000000001      4.260844986619439      6.700000000000000
C       2.460000000000001      5.681126648825918      6.700000000000000
C       2.460000000000002      5.681126648825919     10.050000000000001
C       3.690000000000002      4.970985817722679     10.050000000000001
C       4.920000000000001      4.260844986619439      6.700000000000000
C       4.920000000000001      5.681126648825918      6.700000000000000
C       4.920000000000002      5.681126648825919     10.050000000000001
C       6.150000000000000      4.970985817722679     10.050000000000001
C       7.380000000000001      4.260844986619439      6.700000000000000
C       7.380000000000001      5.681126648825918      6.700000000000000
C       7.380000000000001      5.681126648825919     10.050000000000001
C       8.610000000000001      4.970985817722679     10.050000000000001
C       9.840000000000002      4.260844986619439      6.700000000000000
C       9.840000000000002      5.681126648825918      6.700000000000000
C       9.840000000000002      5.681126648825919     10.050000000000001
C      11.070000000000002      4.970985817722679     10.050000000000001
C      -3.689999999999998      6.391267479929158      6.700000000000000
C      -3.689999999999998      7.811549142135637      6.700000000000000
C      -3.689999999999998      7.811549142135638     10.050000000000001
C      -2.459999999999998      7.101408311032398     10.050000000000001
C      -1.229999999999998      6.391267479929158      6.700000000000000
C      -1.229999999999998      7.811549142135637      6.700000000000000
C      -1.229999999999998      7.811549142135638     10.050000000000001
C       0.000000000000002      7.101408311032398     10.050000000000001
C       1.230000000000002      6.391267479929158      6.700000000000000
C       1.230000000000002      7.811549142135637      6.700000000000000
C       1.230000000000003      7.811549142135638     10.050000000000001
C       2.460000000000002      7.101408311032398     10.050000000000001
C       3.690000000000002      6.391267479929158      6.700000000000000
C       3.690000000000002      7.811549142135637      6.700000000000000
C       3.690000000000003      7.811549142135638     10.050000000000001
C       4.920000000000001      7.101408311032398     10.050000000000001
C       6.150000000000001      6.391267479929158      6.700000000000000
C       6.150000000000001      7.811549142135637      6.700000000000000
C       6.150000000000001      7.811549142135638     10.050000000000001
C       7.380000000000002      7.101408311032398     10.050000000000001
C       8.610000000000003      6.391267479929158      6.700000000000000
C       8.610000000000003      7.811549142135637      6.700000000000000
C       8.610000000000003      7.811549142135638     10.050000000000001
C       9.840000000000003      7.101408311032398     10.050000000000001
C      -4.919999999999998      8.521689973238876      6.700000000000000
C      -4.919999999999998      9.941971635445356      6.700000000000000
C      -4.919999999999997      9.941971635445356     10.050000000000001
C      -3.689999999999997      9.231830804342117     10.050000000000001
C      -2.459999999999998      8.521689973238876      6.700000000000000
C      -2.459999999999997      9.941971635445356      6.700000000000000
C      -2.459999999999997      9.941971635445356     10.050000000000001
C      -1.229999999999997      9.231830804342117     10.050000000000001
C       0.000000000000002      8.521689973238876      6.700000000000000
C       0.000000000000002      9.941971635445356      6.700000000000000
C       0.000000000000003      9.941971635445356     10.050000000000001
C       1.230000000000003      9.231830804342117     10.050000000000001
C       2.460000000000002      8.521689973238876      6.700000000000000
C       2.460000000000002      9.941971635445356      6.700000000000000
C       2.460000000000003      9.941971635445356     10.050000000000001
C       3.690000000000002      9.231830804342117     10.050000000000001
C       4.920000000000002      8.521689973238876      6.700000000000000
C       4.920000000000002      9.941971635445356      6.700000000000000
C       4.920000000000002      9.941971635445356     10.050000000000001
C       6.150000000000002      9.231830804342117     10.050000000000001
C       7.380000000000003      8.521689973238876      6.700000000000000
C       7.380000000000003      9.941971635445356      6.700000000000000
C       7.380000000000003      9.941971635445356     10.050000000000001
C       8.610000000000003      9.231830804342117     10.050000000000001
C      -6.149999999999998     10.652112466548596      6.700000000000000
C      -6.149999999999998     12.072394128755075      6.700000000000000
C      -6.149999999999997     12.072394128755075     10.050000000000001
C      -4.919999999999997     11.362253297651836     10.050000000000001
C      -3.689999999999997     10.652112466548596      6.700000000000000
C      -3.689999999999997     12.072394128755075      6.700000000000000
C      -3.689999999999997     12.072394128755075     10.050000000000001
C      -2.459999999999997     11.362253297651836     10.050000000000001
C      -1.229999999999997     10.652112466548596      6.700000000000000
C      -1.229999999999997     12.072394128755075      6.700000000000000
C      -1.229999999999996     12.072394128755075     10.050000000000001
C       0.000000000000003     11.362253297651836     10.050000000000001
C       1.230000000000003     10.652112466548596      6.700000000000000
C       1.230000000000003     12.072394128755075      6.700000000000000
C       1.230000000000004     12.072394128755075     10.050000000000001
C       2.460000000000002     11.362253297651836     10.050000000000001
C       3.690000000000003     10.652112466548596      6.700000000000000
C       3.690000000000003     12.072394128755075      6.700000000000000
C       3.690000000000003     12.072394128755075     10.050000000000001
C       4.920000000000003     11.362253297651836     10.050000000000001
C       6.150000000000003     10.652112466548596      6.700000000000000
C       6.150000000000003     12.072394128755075      6.700000000000000
C       6.150000000000003     12.072394128755075     10.050000000000001
C       7.380000000000003     11.362253297651836     10.050000000000001
C      -7.379999999999997     12.782534959858314      6.700000000000000
C      -7.379999999999997     14.202816622064793      6.700000000000000
C      -7.379999999999996     14.202816622064793     10.050000000000001
C      -6.149999999999997     13.492675790961554     10.050000000000001
C      -4.919999999999997     12.782534959858314      6.700000000000000
C      -4.919999999999996     14.202816622064793      6.700000000000000
C      -4.919999999999996     14.202816622064793     10.050000000000001
C      -3.689999999999996     13.492675790961554     10.050000000000001
C      -2.459999999999997     12.782534959858314      6.700000000000000
C      -2.459999999999997     14.202816622064793      6.700000000000000
C      -2.459999999999996     14.202816622064793     10.050000000000001
C      -1.229999999999996     13.492675790961554     10.050000000000001
C       0.000000000000003     12.782534959858314      6.700000000000000
C       0.000000000000003     14.202816622064793      6.700000000000000
C       0.000000000000004     14.202816622064793     10.050000000000001
C       1.230000000000003     13.492675790961554     10.050000000000001
C       2.460000000000003     12.782534959858314      6.700000000000000
C       2.460000000000003     14.202816622064793      6.700000000000000
C       2.460000000000003     14.202816622064793     10.050000000000001
C       3.690000000000003     13.492675790961554     10.050000000000001
C       4.920000000000003     12.782534959858314      6.700000000000000
C       4.920000000000003     14.202816622064793      6.700000000000000
C       4.920000000000003     14.202816622064793     10.050000000000001
C       6.150000000000004     13.492675790961554     10.050000000000001
